resultados/_temp_alt2_1p00/LineSummary.csv
line,maxCurrentA,normAmps,maxLoadingPct,meanLoadingPct,overloadHours
rbt_1607347,91.98303351637107,124.95,73.6158731623618,25.40774726452666,0
sbt_7584,91.98304376701238,163.8,56.15570437546543,19.381552386829586,0
sbt_22840,91.98303907121806,163.8,56.15570150868013,19.38155232868984,0
rbt_630758,31.432328319858446,76.65,41.00760380933913,17.06995127479642,0
rbt_637576,24.789142124273916,61.95,40.014757262750464,14.397682132372706,0
rbt_606147,25.53383685396273,76.65,33.31224638481765,12.193878579767706,0
rbt_632607,40.95710523567442,124.95,32.77879570682226,15.436436147082432,0
rbt_637918,17.772631215589794,61.95,28.688670243082797,11.051760172302922,0
rbt_1130761,25.426689204032336,90.3,28.158016837245114,13.25356954471526,0
rbt_1607350,21.91226945179475,90.3,24.26607912712597,8.647289863303426,0
rbt_605836,21.579609111549363,90.3,23.897684508914026,11.26005400851505,0
rbt_637360,14.733711371733607,61.95,23.783230624267322,11.174006753131295,0
rbt_606126,13.5589084063343,61.95,21.886857798764005,7.720385385447153,0
rbt_1633671,13.444960318793491,61.95,21.702922225655353,9.728848388976848,0
rbt_3405844,18.675596975203415,90.3,20.68172422503147,7.09748041551705,0
rbt_626476,12.734454535833216,61.95,20.556020235404702,9.671169029892672,0
rbt_606143,14.88714659875523,76.65,19.42223952870871,6.816082384490863,0
rbt_3435739,13.267322126275976,76.65,17.308965592010406,7.839267009972995,0
rbt_635862,10.580683637116898,61.95,17.079392473150765,5.836276144935737,0
rbt_1627323,12.540271285789663,76.65,16.360432205857354,7.697365305186906,0
rbt_605816,10.078610616770904,61.95,16.268943691317038,6.036098909136444,0
sbt_34378,20.580571853534153,128.1,16.066020182306133,7.882973314860192,0
sbt_34379,20.51630797725587,128.1,16.015853221901537,7.769803723179255,0
rbt_637397,9.794684434043905,61.95,15.810628626382412,7.4321766715756326,0
sbt_24791,25.5338582572169,163.8,15.58843605446697,5.706110456521206,0
sbt_3174,25.533849338963098,163.8,15.58843060986758,5.706112107908094,0
rbt_609688,11.029318789682682,76.65,14.389196072645378,5.17805655565608,0
smt_29422,22.94288058791966,163.8,14.006642605567556,11.464976760231345,0
smt_17184,22.87515023660998,163.8,13.965293184743576,11.412230072926503,0
smt_19119,22.874265816597017,163.8,13.964753245785724,11.411277450883729,0
rbt_606139,9.3378300303833,76.65,12.182426654120416,4.32380117992017,0
rbt_623004,7.183925795323185,61.95,11.596328967430484,4.442797842822824,0
rbt_1638954,7.1528309959449565,61.95,11.546135586674668,5.426947434847292,0
rbt_1607265,10.062634602562243,90.3,11.143559914243902,5.244645465578935,0
sbt_11363,17.899553986353443,163.8,10.927688636357411,4.016684525437777,0
sbt_9361,21.579609145606394,216.3,9.97670325733074,4.700799209603533,0
smt_24512,16.00552499892773,163.8,9.77138278322816,9.62118379291712,0
smt_19115,16.0054719733499,163.8,9.771350411080522,9.621152190503572,0
smt_29473,16.00399379102223,163.8,9.77044797986705,9.620271217576942,0
smt_29474,16.00211370573878,163.8,9.76930018665371,9.619150720807959,0
smt_6092,16.00023621169387,163.8,9.768153975393083,9.618031772710257,0
smt_19063,15.99856056416152,163.8,9.7671309915516,9.617033124605687,0
smt_6227,15.996628199086574,163.8,9.765951281493635,9.615881482891497,0
smt_6144,15.994680533747744,163.8,9.764762230615228,9.614720727159755,0
smt_6176,15.992666772572958,163.8,9.76353282818862,9.613520585013259,0
smt_6719,15.990769161043378,163.8,9.762374335191316,9.612389669092522,0
smt_6062,15.98873946408924,163.8,9.761135203961684,9.611180039339098,0
smt_6066,15.986940865659088,163.8,9.760037158522032,9.610108140520888,0
smt_19014,15.98531348520196,163.8,9.759043641759439,9.609138284747381,0
smt_19011,15.983367678868925,163.8,9.757855725805204,9.6079786636587,0
smt_29475,15.98140369479557,163.8,9.756656712329407,9.606808214018296,0
smt_6594,15.979691970172631,163.8,9.755611703402094,9.605788103865931,0
smt_29476,15.977708013380395,163.8,9.754400496569227,9.604605760108795,0
smt_19061,15.975742339453934,163.8,9.753200451437078,9.603434316725904,0
smt_6474,15.974133988497353,163.8,9.752218552196187,9.602475823402534,0
smt_37840,15.972489086857783,163.8,9.751214338741015,9.601495550996546,0
smt_13371,15.849226980175999,163.8,9.675962747360193,9.444777609865433,0
smt_21221,15.847470264536907,163.8,9.674890271390053,9.443710005655664,0
smt_13441,15.845732036485648,163.8,9.67382908210357,9.442653637710357,0
smt_857,15.844544436004856,163.8,9.673104051285016,9.44193190147338,0
smt_21217,15.843321006828935,163.8,9.672357147026212,9.441188391592314,0
smt_26396,15.841926335877194,163.8,9.671505699558725,9.440340814094279,0
smt_39969,15.84185452604253,163.8,9.671461859610824,9.440297172390707,0
smt_13847,15.840697930113352,163.8,9.670755757089958,9.439594279690285,0
smt_14513,15.839096833572063,163.8,9.66977828667403,9.438621253357258,0
smt_13787,15.837771332603248,163.8,9.668969067523351,9.437815713848595,0
smt_21165,15.835843643978865,163.8,9.66779221244131,9.436644211032911,0
smt_14288,15.834889654019005,163.8,9.667209800988402,9.429788452194185,0
smt_26394,15.833897085252906,163.8,9.666603837150735,9.435461241433591,0
smt_20815,15.833167560570564,163.8,9.666158461886791,9.428741875495918,0
smt_14041,15.832104278372194,163.8,9.66550932745555,9.434371711452203,0
smt_26393,15.830640463056403,163.8,9.664615667311601,9.433482117809445,0
smt_13284,15.829256448843008,163.8,9.663770725789382,9.432641021710616,0
smt_21157,15.828949416905544,163.8,9.663583282604117,9.426178365141073,0
smt_21164,15.827482155472934,163.8,9.662687518603743,9.431562745078539,0
smt_15145,15.827216684788059,163.8,9.662525448588557,9.42512532601476,0
smt_13919,15.825605171494104,163.8,9.661541618738768,9.430422062068276,0
smt_15288,15.825061062739872,163.8,9.661209440012131,9.423815283788175,0
smt_20813,15.823636841589135,163.8,9.66033995213012,9.429225867247018,0
smt_26388,15.823260270402317,163.8,9.66011005519067,9.422720884277874,0
smt_20814,15.82232157315878,163.8,9.659536979950415,9.428426551997585,0
smt_20997,15.821472299194618,163.8,9.659018497676811,9.421634277501198,0
smt_21162,15.82048407038735,163.8,9.658415183386658,9.427309865165595,0
smt_15035,15.819779658128034,163.8,9.657985139272302,9.420605606737357,0
smt_20816,15.817225463067766,163.8,9.656425801628671,9.419053344295516,0
smt_14255,15.815397719473735,163.8,9.655309963048678,9.417942569744147,0
smt_15189,15.814064833421744,163.8,9.65449623530021,9.417132535632286,0
smt_14349,15.812621804489345,163.8,9.65361526525601,9.41625556496755,0
smt_14630,15.81083464338018,163.8,9.6525242023078,9.415169455989526,0
smt_20817,15.80945832834304,163.8,9.651683961137387,9.414333030539881,0
smt_14608,15.808005624038023,163.8,9.650797084272297,9.413450181770317,0
smt_20862,15.805673342915012,163.8,9.64937322522284,9.41203279092161,0
smt_14261,15.804516705589872,163.8,9.648667097429714,9.411329871478133,0
smt_14274,15.802517310851448,163.8,9.647446465721274,9.410114786729006,0
smt_26385,15.800920570319642,163.8,9.646471654651794,9.409144406277745,0
smt_14298,15.799389420296851,163.8,9.645536886628113,9.408213887566125,0
smt_14732,15.79782545191541,163.8,9.64458208297644,9.407263424941918,0
smt_21153,15.796217284012732,163.8,9.643600295490067,9.406286101956644,0
smt_36207,15.794632827289059,163.8,9.642632983692954,9.405323189479995,0
smt_14872,15.792747136598289,163.8,9.641481768375023,9.404177210861805,0
smt_15028,15.790017646528167,163.8,9.639815413020859,9.388094881024417,0
smt_14970,15.788665875993711,163.8,9.638990156284317,9.381168525842579,0
smt_13747,15.787087505821754,163.8,9.638026560330742,9.380208798387978,0
smt_20865,15.785562338321027,163.8,9.637095444640432,9.379281421670926,0
smt_14193,15.783913472724906,163.8,9.636088811187365,9.378278831283525,0
smt_26478,15.783305129197883,163.8,9.635717417092723,9.47837485863092,0
smt_14225,15.782401438622804,163.8,9.635165713444934,9.377359441921863,0
smt_30311,15.781589754195508,163.8,9.634670179606537,9.477341062655944,0
smt_21108,15.780668438502818,163.8,9.634107715813686,9.376305695650387,0
smt_14452,15.779510144343822,163.8,9.63340057652248,9.476087758670397,0
smt_20866,15.779041061272144,163.8,9.633114201020843,9.375316173965635,0
smt_22508,15.777825660340937,163.8,9.63237219801034,9.475072585261668,0
smt_36206,15.777558125335398,163.8,9.632208867726128,9.374414479913854,0
smt_13702,15.775870233647732,163.8,9.631178408820348,9.373388163948242,0
smt_14113,15.775820462878645,163.8,9.631148023735436,9.473864133503023,0
smt_20867,15.774449420742176,163.8,9.6303110016741,9.372524244669174,0
smt_14544,15.773548818198575,163.8,9.629761183271413,9.472495109085934,0
smt_13866,15.773011299316746,163.8,9.6294330276659,9.371649801667585,0
smt_22453,15.77148083381165,163.8,9.628498677540689,9.471248826074063,0
smt_21107,15.771280918617272,163.8,9.628376629192474,9.37059765242626,0
smt_26474,15.769412720519561,163.8,9.627236093113286,9.470002469168996,0
smt_14754,15.76925069932208,163.8,9.627137179073308,9.470653873957096,0
smt_26355,15.769137482343018,163.8,9.627068060038471,9.369294347903892,0
smt_21229,15.767692867838564,163.8,9.626186122001565,9.46896599582687,0
smt_27620,15.76755967356224,163.8,9.626104806814553,9.367115807769274,0
smt_20868,15.767542839842372,163.8,9.626094529818298,9.368324735081982,0
smt_14780,15.76721877729317,163.8,9.62589668943417,9.46942889339044,0
smt_23009,15.76606077551898,163.8,9.625189728644065,9.367423575347624,0
smt_14729,15.765744983483273,163.8,9.624996937413476,9.467792101792162,0
smt_20869,15.765646488170539,163.8,9.62493680596492,9.365952367774549,0
smt_26472,15.765179038816191,163.8,9.624651427848711,9.468199204132409,0
smt_15568,15.764379168283876,163.8,9.624163106400411,9.46427977356155,0
smt_13891,15.76406879173831,163.8,9.62397362132986,9.364992944874503,0
smt_15243,15.763137294779268,163.8,9.623404941867685,9.466968309417235,0
smt_15581,15.76292238352909,163.8,9.623273738418249,9.463403554139395,0
smt_21104,15.762416133924605,163.8,9.622964672725644,9.363987937409822,0
smt_23196,15.761420420752321,163.8,9.62235678922608,9.462500162938701,0
smt_13932,15.760188937618171,163.8,9.621604968020861,9.362633545059856,0
smt_15622,15.760034184802734,163.8,9.62151049133256,9.461666379846895,0
smt_856,15.758742245864847,163.8,9.62072176182225,9.460889315088922,0
smt_14054,15.758175757830497,163.8,9.620375920531437,9.361409300543917,0
smt_16038,15.756420370574835,163.8,9.619304255540191,9.459492775828528,0
smt_13717,15.756419533570748,163.8,9.619303744548684,9.451573284775217,0
smt_26351,15.756170741452895,163.8,9.619151856808848,9.360190021325714,0
smt_20807,15.755075052043665,163.8,9.618482937755594,9.450764621400305,0
smt_14864,15.754186316832264,163.8,9.61794036436646,9.358983265211807,0
smt_23147,15.753565033157258,163.8,9.617561070303577,9.45722023444674,0
smt_23095,15.753388453220522,163.8,9.617453268144397,9.449750187009267,0
smt_20808,15.752589147061656,163.8,9.616965291246432,9.449269431067853,0
smt_21052,15.752544392129217,163.8,9.616937968332854,9.357984788824886,0
smt_26469,15.75100541094727,163.8,9.615998419381727,9.448316867892025,0
smt_26348,15.75092361838581,163.8,9.615948484973021,9.356999175277737,0
smt_13955,15.74949455294186,163.8,9.615076039647045,9.447408140069586,0
smt_14369,15.7494441411397,163.8,9.615045263211048,9.356099486515058,0
smt_20870,15.747820628629315,163.8,9.614054107832304,9.355112208755383,0
smt_14437,15.74776767704897,163.8,9.614021780860176,9.446369486969038,0
smt_21053,15.746426641395757,163.8,9.613203077775188,9.35426450858081,0
smt_13280,15.746065089686414,163.8,9.612982350235907,9.445345444589735,0
smt_26347,15.744683342338373,163.8,9.612138792636369,9.353204388453857,0
smt_21226,15.744378382492231,163.8,9.611952614464121,9.444330955422174,0
smt_14536,15.743006423789733,163.8,9.611115032838665,9.352184635757174,0
smt_13930,15.74260866538167,163.8,9.61087220108771,9.443266541123284,0
smt_14549,15.74098168330048,163.8,9.60987892753387,9.35095336962201,0
smt_21225,15.740298690967967,163.8,9.609461960297903,9.441877186798576,0
smt_21056,15.739496416450708,163.8,9.608972171215328,9.35005016372743,0
smt_15181,15.73816286661939,163.8,9.608158038229176,9.349239218945959,0
smt_13546,15.737975508047287,163.8,9.608043655706524,9.440479891708474,0
smt_21055,15.736831508841599,163.8,9.60734524349304,9.348429607631305,0
smt_13752,15.73658225177383,163.8,9.607193071900994,9.431003775923338,0
smt_14823,15.736545959728264,163.8,9.60717091558502,9.430981934185628,0
smt_20871,15.735415307720599,163.8,9.606480651844077,9.354648470084074,0
smt_23041,15.734786624347258,163.8,9.60609684026084,9.429923157625064,0
smt_14721,15.734088331546253,163.8,9.605670532079518,9.353841414301478,0
smt_14797,15.733049007992305,163.8,9.605036024415325,9.428877453853032,0
smt_14748,15.732466324067497,163.8,9.6046802955235,9.352854923519024,0
smt_26430,15.731158481731217,163.8,9.603881856978765,9.427708608392255,0
smt_26346,15.730870145371554,163.8,9.603705827455162,9.351884142300023,0
smt_26429,15.729429566007857,163.8,9.602826352874148,9.426668042531622,0
smt_14761,15.729106005476856,163.8,9.60262881897244,9.350811209353651,0
smt_20810,15.727690598803349,163.8,9.601764712334155,9.425621429208057,0
smt_14786,15.72735731899096,163.8,9.601561244805225,9.34974767584754,0
smt_26425,15.725939345600299,163.8,9.600695571184554,9.424567423548627,0
smt_21100,15.725636180182708,163.8,9.60051048851203,9.3487008973658,0
smt_21054,15.723926873213339,163.8,9.599466955563699,9.347661315599886,0
smt_14845,15.723862459588668,163.8,9.599427631006511,9.423317435989732,0
smt_21220,15.72177530942411,163.8,9.598153424556843,9.422061273899617,0
smt_23225,15.719762080995974,163.8,9.596924347372388,9.420849604870993,0
smt_14674,15.717837564258627,163.8,9.59574942872932,9.418543570932702,0
smt_15154,15.715843346180216,163.8,9.59453195737498,9.417343358203661,0
smt_20812,15.714180491218562,163.8,9.593516783405715,9.416342577303334,0
smt_26427,15.712419256875789,163.8,9.592441548764217,9.415282589361906,0
smt_23277,15.710663945697704,163.8,9.591369930218377,9.414226168359859,0
smt_14301,15.709000320057621,163.8,9.590354285749463,9.413224929559334,0
smt_21222,15.707233659274408,163.8,9.589275738262764,9.412161682087264,0
smt_21101,15.592697431381296,163.8,9.519351301209582,9.327361923711768,0
smt_14960,15.590313441181726,163.8,9.517895873737316,9.325911305522508,0
smt_21103,15.588868809247359,163.8,9.517013925059437,9.325032271265004,0
smt_14563,15.58713648119922,163.8,9.515956337728461,9.323978178825962,0
smt_26349,15.585360553729227,163.8,9.514872132923825,9.322897556953473,0
smt_26350,15.583937465060611,163.8,9.514003336422839,9.322031631637827,0
smt_17100,15.582048093089742,163.8,9.51284987368116,9.320881980923717,0
smt_15080,15.579724997410517,163.8,9.511431622350743,9.31946841691771,0
smt_14503,15.579122359392922,163.8,9.51106371147309,9.315373009246198,0
smt_20875,15.577377045224889,163.8,9.50999819610799,9.318039728286863,0
smt_26354,15.577359034760283,163.8,9.509987200708354,9.314300039239244,0
smt_14517,15.576131507145373,163.8,9.509237794350044,9.317281839843325,0
smt_27622,15.575340009884016,163.8,9.508754584788775,9.313488868696673,0
smt_21109,15.573966459584963,163.8,9.507916031492652,9.31265306400816,0
smt_14778,15.57387467241215,163.8,9.507859995367612,9.315908594868622,0
smt_21110,15.57265141975199,163.8,9.507113198871787,9.311852862887456,0
smt_14909,15.571876607558755,163.8,9.506640175554795,9.314692807051358,0
smt_14066,15.570928591866933,163.8,9.506061411396173,9.310804522785427,0
smt_21111,15.568922488946281,163.8,9.504836684338388,9.309583809865577,0
smt_14146,15.566984692298785,163.8,9.503653658302067,9.308404661212204,0
smt_26356,15.565120052110561,163.8,9.502515294328791,9.307270028145547,0
smt_14607,15.563235781603481,163.8,9.50136494603387,9.306123449907348,0
smt_15188,15.561590760850425,163.8,9.500360659859844,9.305122454971583,0
smt_14159,15.560214577899197,163.8,9.499520499327959,9.30428504773475,0
smt_14181,15.558813796633356,163.8,9.498665321509984,9.303432672425584,0
smt_14620,15.55710512804601,163.8,9.497622178294266,9.302392947567196,0
smt_20876,15.555151962042228,163.8,9.496429769256547,9.301204445910562,0
smt_26384,15.553125390080794,163.8,9.49519254583687,9.299971276554208,0
smt_14740,15.55069780375794,163.8,9.493710502904724,9.298494089752948,0
rbt_635543,5.839621517403204,61.95,9.426346275065704,3.6633175223826355,0
smt_36560,15.397868239997726,163.8,9.400407960926572,9.23295861068179,0
smt_14427,15.396070076945108,163.8,9.399310181285168,9.231946951371976,0
smt_36562,15.394729691810562,163.8,9.398491875342224,9.23113062863145,0
smt_36563,15.394687089376815,163.8,9.398465866530412,9.231104683579167,0
smt_36561,15.394659076953076,163.8,9.398448764928617,9.231087623099079,0
smt_13545,15.39365817938119,163.8,9.397837716349931,9.22753171367099,0
smt_26391,15.39359314209596,163.8,9.397798011047595,9.241359616808666,0
smt_20926,15.393087095663413,163.8,9.397489069391582,9.23013025496909,0
smt_21154,15.392032047669915,163.8,9.396844961947444,9.22654136700622,0
smt_21161,15.391930328048648,163.8,9.396782862056561,9.240346636061927,0
smt_14247,15.391085312389196,163.8,9.396266979480583,9.228911129535797,0
smt_16842,15.390062321262876,163.8,9.395642442773427,9.225341765161069,0
smt_14907,15.390044830070842,163.8,9.395631764390012,9.23919799755824,0
smt_14040,15.388920154815546,163.8,9.394945149460039,9.227592506981553,0
smt_26390,15.388356568963994,163.8,9.394601079953597,9.238169515510705,0
smt_16817,15.387572152667548,163.8,9.394122193325732,9.223825205085154,0
smt_14065,15.38658010857384,163.8,9.393516549800879,9.237087303283543,0
smt_14587,15.385915456501987,163.8,9.39311077930524,9.222816246394034,0
smt_23120,15.385615335584847,163.8,9.392927555302103,9.23074014922067,0
smt_27624,15.38468479210096,163.8,9.392359457937093,9.235932684932278,0
smt_14588,15.383823063938191,163.8,9.391833372367637,9.221541941326073,0
smt_15289,15.383781232339661,163.8,9.391807834151198,9.229623019625295,0
smt_23173,15.383034181132915,163.8,9.391351758933403,9.234927140481487,0
smt_14163,15.382459107758088,163.8,9.391000676286989,9.228817730299152,0
smt_16855,15.381659953556056,163.8,9.390512792158765,9.22022456890653,0
smt_20927,15.381070648736777,163.8,9.390153021206823,9.227972037866792,0
smt_26392,15.379763995246412,163.8,9.389355308453244,9.22717617252289,0
smt_26387,15.379594810089644,163.8,9.389252020811748,9.218966861036327,0
smt_27623,15.378110929958593,163.8,9.38834611108583,9.218063153126396,0
smt_14735,15.37808482846069,163.8,9.388330176105427,9.226153414782479,0
smt_26389,15.376717657166541,163.8,9.38749551719569,9.21721462707797,0
rbt_606121,5.807835550557784,61.95,9.37503720832572,4.4049768485150365,0
smt_3613,15.172358866407473,163.8,9.262734350676112,9.186862487392188,0
smt_14937,15.169907495535906,163.8,9.261237787262457,9.18537231867358,0
smt_15269,15.16772503373674,163.8,9.259905393001672,9.18404561822195,0
rbt_1605991,5.560002221301841,61.95,8.974983408073996,4.2196219556398535,0
rbt_1607280,5.51459417679791,61.95,8.901685515412284,4.183653201495075,0
sbt_34393,11.090123321730573,128.1,8.657395255058995,5.691638753567592,0
rbt_606114,7.534330256455804,90.3,8.343665843251168,3.921835435254286,0
rbt_627337,7.335902503709354,90.3,8.123923038437823,3.820122912602671,0
smt_34714,22.901820471054734,286.65,7.989471645231026,6.537689451116274,0
smt_34721,22.901803633749932,286.65,7.989465771411106,6.537679085484544,0
smt_34712,22.901793081067392,286.65,7.989462090028744,6.537672593961776,0
smt_34720,22.901483971778706,286.65,7.989354254937626,6.537482343040854,0
smt_34711,22.90105317546017,286.65,7.989203968414503,6.53721719613682,0
smt_34719,22.900586194190286,286.65,7.989041058500012,6.536929778008371,0
smt_34710,22.90017661108024,286.65,7.988898172363594,6.536677687543154,0
smt_34718,22.89976568731563,286.65,7.988754818529786,6.5364247718457,0
smt_34709,22.899372780959677,286.65,7.988617750203969,6.53618294556363,0
smt_34708,22.89897099092911,286.65,7.988477582741711,6.535935651501295,0
smt_34707,22.898249703905627,286.65,7.988225956359892,6.535491713272365,0
smt_34706,22.897690752502964,286.65,7.988030961975568,6.535147689435675,0
smt_34717,22.89709080020645,286.65,7.987821664122258,6.534778430545296,0
smt_34705,22.896581227890305,286.65,7.9876438960022,6.534464798894322,0
smt_34716,22.896077922238288,286.65,7.987468314054872,6.534155024159104,0
smt_34704,22.895655523009133,286.65,7.987320956919286,6.533895045894334,0
smt_34703,22.89523538758314,286.65,7.987174389528394,6.533636460919027,0
smt_34702,22.8945631445254,286.65,7.986939872501448,6.533222708839301,0
smt_34715,22.8940039202442,286.65,7.986744782921402,6.5328785176068145,0
smt_34701,22.89359564495625,286.65,7.98660235302852,6.532627232428258,0
smt_34700,22.893183424226372,286.65,7.986458546738662,6.532373519113136,0
smt_34713,22.892701357727066,286.65,7.986290374228874,6.532076817029732,0
rbt_1621994,7.1907996200653335,90.3,7.963233244812108,3.7421099827215882,0
rbt_626678,7.045440612520224,90.3,7.802259814529595,3.6697835906267287,0
rbt_606150,4.781000718532214,61.95,7.717515284152081,3.6255419402547147,0
rbt_1607272,6.883588880585969,90.3,7.62302201615279,3.586466104218301,0
rbt_623007,4.705295944483373,61.95,7.595312259053063,3.5686680295907336,0
sbt_22748,16.3010360924794,216.3,7.536308873083403,3.5462585261015973,0
sbt_7427,16.30102767065983,216.3,7.536304979500614,3.5462545152476,0
sbt_34383,9.63894382707013,128.1,7.524546313091437,4.432482330938157,0
sbt_34392,9.638940628904475,128.1,7.524543816475,4.717319521199326,0
sbt_34384,9.626501403347756,128.1,7.514833257882714,3.6299617623536293,0
rbt_1630759,5.699096964738945,76.65,7.435221089026673,3.4975024945629816,0
smt_37838,16.071516427935528,216.3,7.430197146525902,7.309401352768618,0
smt_37842,16.07039063174244,216.3,7.429676667472234,7.308890127790874,0
smt_37843,16.069690165405756,216.3,7.429352827279591,7.308572046302465,0
smt_38001,16.068335435082062,216.3,7.428726507203912,7.307956865906604,0
smt_38002,16.06828099511317,216.3,7.428701338471183,7.3079321440890865,0
smt_38000,16.0682542282881,216.3,7.428688963609847,7.3079199894951055,0
smt_37845,16.06701108157203,216.3,7.428114230962565,7.307355481004923,0
smt_37846,16.065544079623034,216.3,7.427436005373571,7.3066893233059105,0
smt_37847,16.064168672910217,216.3,7.426800126172083,7.306064761089883,0
smt_37848,16.063161562719305,216.3,7.4263345181319025,7.305607441234543,0
smt_37849,16.061729460305028,216.3,7.425672427325486,7.304957138444769,0
smt_37850,16.060292888350812,216.3,7.425008270157564,7.3043048088577445,0
smt_37851,16.05890675104338,216.3,7.424367429978447,7.303675383586035,0
smt_37852,16.057515808990065,216.3,7.423724368465125,7.303043779101919,0
rbt_606122,4.598968745986593,61.95,7.423678363174484,3.489326737072832,0
smt_37853,16.056179377128004,216.3,7.423106508149793,7.302436929229136,0
smt_37854,16.05476137009705,216.3,7.4224509339329865,7.301793040106176,0
smt_37855,16.053380757453244,216.3,7.4218126479210556,7.301166133593877,0
smt_37856,16.05188143938629,216.3,7.421119481916916,7.300485328348576,0
smt_37831,16.03640221629968,216.3,7.413963114331798,7.29423592822825,0
smt_37858,16.035707646087335,216.3,7.413642000040377,7.293920286687759,0
smt_37859,16.034248592869833,216.3,7.412967449315687,7.2932572343764726,0
smt_37860,16.0331939431654,216.3,7.412479862767175,7.292777960922255,0
smt_37861,16.031779210353886,216.3,7.411825802290284,7.292135054026557,0
smt_37862,16.03043836207821,216.3,7.411205900174854,7.291525725390635,0
smt_37863,16.029331348588183,216.3,7.41069410475644,7.291022661264617,0
smt_37864,16.028661389434777,216.3,7.410384368670725,7.290718209969923,0
smt_37923,16.02799090740534,216.3,7.410074390848516,7.290413521746708,0
smt_37924,16.026576285540642,216.3,7.409420381664651,7.289770674702557,0
smt_37925,16.025142094300566,216.3,7.408757325150515,7.289118937354719,0
smt_37932,16.005900113685662,216.3,7.399861356304051,7.278562139192413,0
smt_37933,16.004547081255986,216.3,7.399235821200179,7.277946996378514,0
smt_37934,16.003195349584512,216.3,7.398610887463944,7.277332447285378,0
smt_37935,16.001852045129688,216.3,7.397989849805681,7.276721731911954,0
rbt_1229546,6.680227489725104,90.3,7.3978156032393185,3.479093341884937,0
smt_37936,16.000623560733267,216.3,7.3974218958544915,7.276163219957478,0
smt_37937,15.999266234811115,216.3,7.396794375779525,7.275546134422769,0
smt_37938,15.997910379222354,216.3,7.396167535470344,7.274929719718087,0
smt_37939,15.996531726346465,216.3,7.3955301554999835,7.274302943077508,0
smt_37940,15.995169816286404,216.3,7.39490051608248,7.273683780618486,0
smt_37941,15.993836870788423,216.3,7.394284267585956,7.273077788597423,0
smt_37942,15.992532214750586,216.3,7.393681097896711,7.272484659884131,0
smt_37943,15.991216133876323,216.3,7.39307264626737,7.271886339409619,0
smt_37944,15.989889645482187,216.3,7.392459383024589,7.271283289678327,0
smt_37945,15.988762384649007,216.3,7.391938226837266,7.270770814804496,0
smt_37873,15.987800082572422,216.3,7.391493334522617,7.270333334699234,0
smt_37874,15.986450876483465,216.3,7.390869568415841,7.269719962995745,0
smt_37875,15.984998396983967,216.3,7.390198056858052,7.269059644081207,0
smt_37876,15.983503918410047,216.3,7.389507128252449,7.268380234583112,0
smt_37877,15.982016331907648,216.3,7.388819385995214,7.267703961173762,0
smt_37878,15.98053648737252,216.3,7.388135223010874,7.267031210178561,0
smt_37879,15.979109891354152,216.3,7.387475677926099,7.266382669100135,0
smt_37880,15.977594255298952,216.3,7.386774967775751,7.265693652625209,0
smt_37881,15.976220510853688,216.3,7.3861398570752135,7.265069143428293,0
smt_37882,15.974760100653747,216.3,7.3854646789892495,7.264405238306531,0
smt_37883,15.973322041860413,216.3,7.3847998344246015,7.263751496839228,0
smt_37884,15.971835686448165,216.3,7.384112661326012,7.26307580251468,0
smt_37841,15.971162231580566,216.3,7.383801309098735,7.270436659357731,0
smt_37885,15.970393591586367,216.3,7.383445950802758,7.262420231687275,0
smt_37837,15.970319115732401,216.3,7.383411519062598,7.270056164126371,0
smt_37886,15.968957207470396,216.3,7.382781880476373,7.261767259613102,0
smt_37887,15.967536216827696,216.3,7.3821249268736455,7.261121287897683,0
smt_37888,15.96606233602951,216.3,7.381443521049241,7.26045127543422,0
smt_37889,15.96511040133482,216.3,7.3810034217914104,7.2600185363263146,0
smt_37890,15.964116479840797,216.3,7.380543911160793,7.259566711659935,0
smt_37891,15.96213992778183,216.3,7.379630109931498,7.2586681988514234,0
smt_37892,15.960678204219077,216.3,7.37895432465052,7.258003723082743,0
smt_37893,15.95930442300324,216.3,7.37831919695018,7.257379226966072,0
smt_37894,15.957880970841464,216.3,7.377661105335859,7.256732153863667,0
smt_37895,15.956518115684156,216.3,7.377031028980192,7.2561126294205005,0
smt_37896,15.9550780589745,216.3,7.37636526073717,7.2554580133733175,0
smt_37897,15.95361550772483,216.3,7.375689092799274,7.254793174576187,0
smt_37898,15.952252813635551,216.3,7.375059090908715,7.254173730762463,0
smt_37903,15.946562602105491,216.3,7.372428387473644,7.2447274981883405,0
smt_37904,15.945507451044953,216.3,7.37194056913775,7.2442484042535655,0
smt_37905,15.94411498234635,216.3,7.37129680182448,7.2436161515886175,0
smt_37906,15.942727556951617,216.3,7.370655366135745,7.242986190183783,0
smt_40683,15.941238234409955,216.3,7.369966821271361,7.242309963825057,0
smt_37908,15.939801894365205,216.3,7.3693027713200205,7.241657795668014,0
smt_37909,15.938257693121155,216.3,7.368588854887265,7.240956654869777,0
smt_37910,15.936781947851133,216.3,7.3679065870786555,7.240286597943406,0
smt_37911,15.935277569700066,216.3,7.3672110816921235,7.239603542066604,0
smt_40685,15.935189936694549,216.3,7.367170567126467,7.2395637528006604,0
smt_37912,15.933794662963328,216.3,7.3665255029881305,7.238930236651176,0
smt_37913,15.932316851635676,216.3,7.365842279998,7.238259246295364,0
smt_37914,15.930792036808684,216.3,7.365137326310071,7.237566915901081,0
smt_37915,15.9293440286261,216.3,7.36446788193532,7.236909460521722,0
smt_37916,15.928238677616418,216.3,7.3639568551162355,7.236407586615475,0
smt_37917,15.926751610054554,216.3,7.3632693527760305,7.235732399368399,0
smt_37918,15.925245086451143,216.3,7.362572855502146,7.235048379854882,0
smt_37919,15.92378391411356,216.3,7.361897325064058,7.234384953132504,0
smt_37920,15.922257525880784,216.3,7.361191643957829,7.23369191757041,0
smt_37993,15.920703679844065,216.3,7.360473268536322,7.232986416796456,0
smt_37987,15.920063850128273,216.3,7.360177461917833,7.232695912141939,0
smt_37986,15.91878466526283,216.3,7.359586068082677,7.232115119106301,0
rbt_1638606,4.551230294671743,61.95,7.346618716177147,3.454027500315919,0
smt_37948,15.889653977284334,216.3,7.346118343635845,7.221344205836516,0
smt_37947,15.887924378413372,216.3,7.345318714014503,7.220557406550964,0
smt_37985,15.886242531922985,216.3,7.34454116131437,7.21979233198368,0
smt_37984,15.884405327537971,216.3,7.343691783420237,7.218956587174965,0
smt_37983,15.882539249311966,216.3,7.342829056547371,7.218107710089456,0
smt_37963,15.880643951825041,216.3,7.341952821000944,7.217245543732987,0
smt_24122,24.029115260215086,327.6,7.334894768075423,5.90023961505915,0
smt_18806,24.02910334016896,327.6,7.334891129477704,5.900232777717892,0
smt_10381,24.029018808542915,327.6,7.33486532617305,5.900184267122129,0
smt_18545,24.028759074688,327.6,7.334786042334554,5.900035213289793,0
smt_23134,24.028244898432277,327.6,7.334629089875542,5.899740144184574,0
smt_4527,24.027759542456085,327.6,7.334480934815654,5.899461616631789,0
smt_4627,24.027218171123273,327.6,7.334315681051059,5.899150946852118,0
smt_4591,24.026885130718874,327.6,7.334214020365956,5.898959830832356,0
smt_4693,24.026468732602336,327.6,7.334086914713778,5.898720881326646,0
smt_4863,24.026076336311476,327.6,7.333967135626213,5.898495706860046,0
smt_4387,24.025646930881777,327.6,7.333836059487721,5.898249296839038,0
smt_31415,24.02513505132301,327.6,7.333679808096156,5.897955562351583,0
smt_31414,24.024691382790433,327.6,7.333544378141157,5.897700972118504,0
smt_31413,24.02442157765317,327.6,7.33346202004065,5.897546150791776,0
smt_31412,24.024315096380256,327.6,7.3334295165995895,5.897485049228184,0
smt_31411,24.024173400927353,327.6,7.333386264019339,5.897403740085394,0
smt_31416,24.02414757933223,327.6,7.333378381969545,5.897388922811946,0
smt_31417,24.02412839212973,327.6,7.333372525070124,5.897377912744267,0
smt_31408,24.0145407872777,327.6,7.3304459057624225,5.895905611926712,0
smt_31407,24.014081630449997,327.6,7.33030574800061,5.888712570795988,0
smt_6830,24.013527731482263,327.6,7.330136670171631,5.888394024042026,0
smt_6842,24.01262317827064,327.6,7.329860555027667,5.887873823531272,0
smt_7020,24.011870998181074,327.6,7.329630951825725,5.887441258185934,0
smt_22791,24.01137512858863,327.6,7.329479587481266,5.887156095831911,0
smt_7012,24.010730632861588,327.6,7.3292828549638545,5.886785466223266,0
smt_6826,24.01017847925593,327.6,7.329114309907182,5.886467943304154,0
smt_17964,24.00956224762288,327.6,7.328926205013089,5.8861135753343135,0
smt_37959,15.8505978158522,216.3,7.328061865858622,7.207527203234253,0
smt_37958,15.84870615823509,216.3,7.327187313099904,7.206664527023339,0
smt_37957,15.846779621440238,216.3,7.326296634970059,7.205785946898993,0
smt_37962,15.845070741984074,216.3,7.325506584366191,7.202834897075065,0
smt_37956,15.844890992158344,216.3,7.3254234822738535,7.204924656549875,0
smt_17962,23.996324177920393,327.6,7.324885280195479,5.88389537371502,0
smt_29388,23.99580549231351,327.6,7.32472695125565,5.8835970345120705,0
smt_37960,15.843368181010229,216.3,7.324719454928445,7.20205980700359,0
smt_37955,15.842993393818537,216.3,7.324546182995162,7.20405927830969,0
smt_17961,23.995188889701343,327.6,7.324538733120067,5.883242378897365,0
smt_19163,23.994687154851942,327.6,7.324385578404133,5.882953795557206,0
smt_29389,23.99425208839298,327.6,7.324252774234731,5.882703560125738,0
smt_17795,23.99356940483416,327.6,7.324044384870013,5.8823109078020295,0
smt_37954,15.841390471282242,216.3,7.323805118484623,7.203328285533477,0
smt_22739,23.992777040519748,327.6,7.323802515421169,5.8818551777766865,0
smt_29420,23.992066707884547,327.6,7.323585686167444,5.881446634367332,0
smt_17794,23.991851260685614,327.6,7.323519920844205,5.881322722223422,0
smt_18202,23.991482580655802,327.6,7.323407381152565,5.881110681138117,0
smt_10747,23.990885858815865,327.6,7.323225231628775,5.880767488109069,0
smt_17776,23.990242746055454,327.6,7.323028921262348,5.880397618456435,0
smt_29390,23.989502095203974,327.6,7.32280283736385,5.8799716579155685,0
smt_37953,15.837183670273514,216.3,7.321860226663668,7.201927871406174,0
smt_37952,15.83534986294481,216.3,7.321012419299495,7.20109144934566,0
smt_37951,15.833448083835158,216.3,7.320133187163734,7.200224026892219,0
smt_37981,15.831904516167747,216.3,7.319419563646669,7.199519990393367,0
smt_37980,15.821015593140592,216.3,7.31438538748987,7.195737338257452,0
smt_37979,15.819826813059052,216.3,7.313835789671313,7.195195123602225,0
smt_37978,15.818209358100521,216.3,7.313088006518964,7.194457387499024,0
smt_37977,15.816383212247098,216.3,7.312243741214562,7.193624467699803,0
smt_37976,15.814739836743065,216.3,7.311483974453567,7.192874912832749,0
smt_37975,15.813014839060685,216.3,7.310686472057644,7.192088131443714,0
smt_37990,15.811267576421654,216.3,7.309878676108022,7.1912911969017514,0
smt_37974,15.809654665934021,216.3,7.309132993959325,7.190555542812102,0
smt_37991,15.80791252149577,216.3,7.308327564260642,7.189760946617248,0
smt_37973,15.806891523518487,216.3,7.307855535607252,7.189295267906349,0
smt_37989,15.801613295373038,216.3,7.305415300681016,7.1848881755418335,0
smt_37969,15.798169461869774,216.3,7.30382314464622,7.1845823968041715,0
smt_37972,15.797343073484004,216.3,7.303441088064727,7.182940119434895,0
smt_37968,15.796846071805824,216.3,7.303211313826086,7.183978406856286,0
smt_37971,15.79561193122387,216.3,7.302640744902391,7.182150383510955,0
smt_37967,15.795127518005991,216.3,7.302416790571424,7.1831940674030585,0
smt_37970,15.794400267533725,216.3,7.302080567514436,7.181597631537737,0
smt_37966,15.79337865411164,216.3,7.30160825432808,7.1823958964795365,0
smt_37996,15.791675125175395,216.3,7.300820677381134,7.181618418073442,0
smt_37995,15.790283176170474,216.3,7.30017715033309,7.180983143923914,0
smt_37994,15.790254763071273,216.3,7.300164014364897,7.180970177122176,0
smt_37965,15.790241270671192,216.3,7.300157776547015,7.180964018210225,0
smt_37964,15.784176104556726,216.3,7.2973537237895165,7.178195939062911,0
rbt_605905,6.515481603060386,90.3,7.2153727608642155,3.3918013062077588,0
rbt_1607283,6.4564766859757,90.3,7.150029552575527,3.3637668104551497,0
smt_12228,22.991603785009815,327.6,7.01819407356832,5.743020885668238,0
smt_24626,22.991125744100405,327.6,7.0180481514348,5.7427625815886385,0
smt_6431,22.990597842327748,327.6,7.017887009257554,5.742477335600241,0
smt_6957,22.990112295133923,327.6,7.017738795828425,5.742214975218701,0
smt_24627,22.989528820072962,327.6,7.0175606898879614,5.741899700348167,0
smt_24628,22.98905996421992,327.6,7.0174175714957014,5.74164635853258,0
smt_24629,22.98855874750062,327.6,7.017264574939139,5.741375530757986,0
smt_24630,22.98788361773454,327.6,7.01705849137196,5.741010730340587,0
smt_6627,22.987377211492973,327.6,7.01690391071214,5.740737097975089,0
smt_6447,22.98655645600753,327.6,7.016653374849673,5.74029360925354,0
smt_6527,22.946202747477447,327.6,7.004335393002884,5.734279896433794,0
smt_24631,22.945697581643138,327.6,7.004181190977758,5.734007480169819,0
smt_1873,22.94514987177606,327.6,7.004014002373644,5.733712121273435,0
smt_24632,22.944622655983522,327.6,7.003853069592039,5.733427813700779,0
smt_24633,22.94403425471123,327.6,7.0036734599240615,5.733110510750257,0
smt_24634,22.943436390019908,327.6,7.003490961544538,5.7327881041886615,0
smt_6535,22.941901020851276,327.6,7.0030222896371415,5.731960138525452,0
smt_6544,22.941322870076608,327.6,7.002845808936693,5.731648366977552,0
smt_19172,22.94061022100192,327.6,7.002628272589108,5.731264065838642,0
smt_19173,22.940128056038326,327.6,7.00248109158679,5.731004054460847,0
smt_6686,22.939686165119664,327.6,7.0023462042489815,5.730765761037794,0
smt_19174,22.938378368742647,327.6,7.001946999005691,5.730060519217594,0
smt_24636,22.937600604717787,327.6,7.00170958629969,5.729641101478818,0
smt_24637,22.936941279072624,327.6,7.001508326945245,5.7292855523451385,0
smt_24635,22.93621708479948,327.6,7.001287266422307,5.7288950213995955,0
smt_24665,22.935476494164007,327.6,7.001061200904764,5.7284956478869695,0
smt_6737,22.93476072551821,327.6,7.000842712307145,5.728109659283702,0
smt_22843,22.934067849115713,327.6,7.000631211573783,5.727736015086932,0
smt_19223,22.933536112613716,327.6,7.000468898844235,5.72744926765634,0
smt_6510,22.93292645331428,327.6,7.000282800156985,5.7271204986995,0
smt_24666,22.908820076208844,327.6,6.99292432118707,5.724247849537505,0
smt_6687,22.908290740401547,327.6,6.992762741270313,5.7239627826253665,0
smt_22844,22.907850622008613,327.6,6.992628394996523,5.723725762303217,0
smt_19220,22.907263544091037,327.6,6.992449189282977,5.723409598287077,0
smt_6683,22.906729245939086,327.6,6.992286094609,5.723121857690592,0
smt_24667,22.90596095249895,327.6,6.992051572801877,5.722708100762614,0
smt_6502,22.905014043541925,327.6,6.991762528553701,5.722198150934897,0
smt_19218,22.90466184947975,327.6,6.9916550212087145,5.722008479398288,0
smt_29393,22.90398788514865,327.6,6.991449293390918,5.72164552039533,0
smt_24668,22.902050948986147,327.6,6.990858043036063,5.720602392648236,0
smt_6394,22.892497845571647,327.6,6.987941955302699,5.715457614658342,0
smt_24450,22.89194038435519,327.6,6.987771790096212,5.715157396960542,0
smt_24451,22.891351264238185,327.6,6.987591961000667,5.714840129260608,0
smt_24452,22.890812747587557,327.6,6.9874275786286795,5.7145501135420345,0
smt_24453,22.890242638617792,327.6,6.987253552691633,5.714243083577778,0
smt_6993,22.889592123023295,327.6,6.987054982607843,5.713892750652069,0
smt_17113,22.888751616142482,327.6,6.98679841762591,5.713440097976541,0
smt_19165,22.88736630738974,327.6,6.98637555170627,5.712694042451656,0
smt_24454,22.886734836412728,327.6,6.986182794997779,5.7123539643822605,0
smt_24455,22.88613086801018,327.6,6.9859984334585405,5.712028697470717,0
smt_24456,22.885583854626095,327.6,6.985831457456072,5.711734103444684,0
smt_24457,22.88501365856768,327.6,6.985657404935189,5.711427024097592,0
smt_24458,22.884458212609516,327.6,6.98548785488691,5.711127888143999,0
smt_24459,22.883854137298904,327.6,6.9853034607139515,5.71080256257886,0
smt_24505,22.883253791507865,327.6,6.985120204977981,5.71047924524526,0
smt_24506,22.882755354200217,327.6,6.9849680568376735,5.710210810718216,0
smt_24507,22.882174424792563,327.6,6.984790727958658,5.7098979496806,0
smt_29445,22.881611452405824,327.6,6.984618880465758,5.709594759091996,0
smt_6650,22.881046533759154,327.6,6.98444643887642,5.709290520097565,0
smt_6653,22.88049736878412,327.6,6.984278806100158,5.708994765173344,0
smt_6140,22.879937508075287,327.6,6.984107908447889,5.708693249722763,0
smt_6420,22.879369288758387,327.6,6.983934459327957,5.708387232532061,0
smt_6426,22.878773540001035,327.6,6.983752606837921,5.70806638900638,0
smt_24508,22.878222201187395,327.6,6.983584310496763,5.7077694623701944,0
smt_24509,22.877681407442047,327.6,6.983419233040918,5.707478214721082,0
smt_24510,22.877081487920023,327.6,6.983236107423695,5.7071551242464045,0
smt_6389,22.87639705391331,327.6,6.983027183734221,5.706786518241682,0
smt_32671,22.87637512216141,327.6,6.983020489060259,5.706774705858585,0
smt_29446,22.875733492728585,327.6,6.982824631480032,5.706429152426438,0
smt_24511,22.87513133274763,327.6,6.982640821962035,5.706104855137219,0
rbt_605822,6.187467732198823,90.3,6.852123734439449,3.225350653140899,0
rbt_1107340,6.184560775453905,90.3,6.84890451323799,3.2234298682355504,0
rbt_1607287,6.17567078195939,90.3,6.839059559201982,3.2170533466137456,0
rbt_1626486,6.170815874655609,90.3,6.833683139153498,3.211182410930008,0
rbt_606132,4.125832000803713,61.95,6.659938661507203,3.1292156052684867,0
rbt_623433,5.976516763777128,90.3,6.618512473728824,3.113976085683029,0
rbt_626698,5.93454299187216,90.3,6.5720298913312964,3.08883027558436,0
rbt_1607252,5.0033044255711285,76.65,6.527468265585294,3.069727082579496,0
rbt_637356,3.910351768720623,61.95,6.312109392607947,2.9671424452323443,0
rbt_631391,5.625197780048695,90.3,6.229454905923251,4.717828546222406,0
sbt_28279,13.444972536461965,216.3,6.215891140296794,2.7864180563369896,0
sbt_20214,13.444965077926877,216.3,6.215887692060507,2.7864181221066606,0
rbt_605855,4.647954529737967,76.65,6.063867618705761,2.8527304053769686,0
rbt_1607255,5.420338562189333,90.3,6.002589769866372,2.821704128140359,0
rbt_636933,4.510025413097166,76.65,5.883920956421612,2.768523654736168,0
rbt_605910,3.5425097169570265,61.95,5.7183369119564595,2.686275385823073,0
rbt_627343,5.1294364834843025,90.3,5.680439073626027,2.669214307850518,0
rbt_1607304,3.450026844182331,61.95,5.569050595935965,2.6157413276908597,0
rbt_1607305,4.874621981828208,90.3,5.398252471570552,2.538060867151816,0
rbt_1607285,3.3098192240344013,61.95,5.342726753889267,2.5089425502264198,0
rbt_606103,4.018712780002805,76.65,5.242939047622707,2.464490833965539,0
rbt_3405846,4.0127274917697395,76.65,5.235130452406705,2.461994654614817,0
rbt_605825,4.658271149885939,90.3,5.15866129555475,2.4259828714238316,0
rbt_606109,3.1902574597865074,61.95,5.149729555749003,2.4193670097719013,0
sbt_4580,8.378545186762004,163.8,5.115106951625155,2.4073264950171587,0
rbt_1631852,4.604697303556888,90.3,5.099332562078502,2.396881512313786,0
rbt_605993,4.57528266173645,90.3,5.066758207903046,2.381173540515739,0
rbt_630753,4.548696569683718,90.3,5.0373162454969185,2.369191586384359,0
rbt_621999,4.54284607925566,90.3,5.0308372970716055,2.3647208906579045,0
sbt_6049,8.213350980592752,163.8,5.014255787907663,2.3599394498375186,0
rbt_607384,3.004721211311233,61.95,4.850236015030238,2.2789037860273313,0
rbt_1607278,3.708988210294432,76.65,4.838862635739637,2.273603598122962,0
rbt_1628760,4.356793745088621,90.3,4.824799274738229,2.266941018678125,0
rbt_3433894,4.342236267164661,90.3,4.8086780367271995,2.260960654194512,0
rbt_1607357,3.658607094228066,76.65,4.7731338476556635,2.243381569275219,0
smt_6110,15.444802186719226,327.6,4.714530582026626,2.726365551345595,0
sbt_25907,10.078635541193528,216.3,4.6595633570011685,1.7287851141449986,0
sbt_21361,10.078628688510568,216.3,4.659560188862953,1.7287852619854156,0
sbt_20771,10.078623216921208,216.3,4.659557659233106,1.7287875509209079,0
smt_37926,16.01061037231422,346.5,4.620666774116657,4.544924082548191,0
smt_37927,16.00982149211316,346.5,4.620439103062961,4.544700191233333,0
smt_37928,16.00902395688472,346.5,4.6202089341658645,4.544473843917724,0
smt_37929,16.008220818861258,346.5,4.619977148300507,4.544245906990328,0
smt_37930,16.007426329702664,346.5,4.619747858500047,4.544020425101652,0
smt_37931,16.006698342029452,346.5,4.619537761047461,4.543813817109622,0
smt_6802,14.964806407716184,327.6,4.568011723967088,2.7329842566127946,0
smt_24514,14.964264380856907,327.6,4.567846270102841,2.732864565426804,0
smt_24513,14.963701514655387,327.6,4.5676744550230115,2.7327403628079505,0
smt_19166,14.963259876228847,327.6,4.5675396447585,2.732642974968844,0
smt_6414,14.962828800388333,327.6,4.567408058726597,2.732547971019324,0
smt_18852,14.962392543398863,327.6,4.5672748911473935,2.73245188030298,0
smt_6403,14.961908515242794,327.6,4.567127141405003,2.7323453323002447,0
smt_1832,14.961487765502714,327.6,4.566998707418411,2.732252769117895,0
smt_1831,14.961077880205782,327.6,4.566873589806404,2.7321626457106505,0
smt_1829,14.96027322717907,327.6,4.56662796922438,2.731985865501562,0
smt_1828,14.959690812376172,327.6,4.566450186928013,2.7318580284447234,0
smt_24515,14.869202458083139,327.6,4.5388285891584665,2.684976670543841,0
smt_6552,14.868820858407899,327.6,4.538712105741117,2.684891781860937,0
smt_6549,14.86831669025898,327.6,4.5385582082597615,2.6847796929142227,0
smt_23959,14.86787647644122,327.6,4.538423832857514,2.68468188383382,0
smt_22744,14.867348405756163,327.6,4.538262639119708,2.684564629521912,0
smt_19175,14.86690924202499,327.6,4.538128584256712,2.6844671790323194,0
smt_19177,14.866409222503401,327.6,4.537975953145116,2.6843562938981615,0
smt_19176,14.865883752629472,327.6,4.537815553305699,2.6842398444118634,0
smt_19164,14.865654970869155,327.6,4.537745717603527,2.684189169524369,0
smt_32311,14.865261321597492,327.6,4.53762555604319,2.684102012913803,0
smt_39119,14.864789185372047,327.6,4.537481436316253,2.6839975391929856,0
smt_32312,14.864767020323436,327.6,4.537474670428399,2.6839926361175905,0
smt_32310,14.864748944287232,327.6,4.53746915271283,2.6839886375565665,0
smt_32309,14.864312086680409,327.6,4.537335801794996,2.683892034258244,0
smt_32314,14.864112368099734,327.6,4.537274837637281,2.683847888921992,0
smt_32313,14.864097203228523,327.6,4.537270208555714,2.683844536942372,0
smt_6350,14.785664130591076,327.6,4.513328489191415,2.6702445350626873,0
smt_24517,14.783527749601735,327.6,4.512676358242287,2.6699977186654635,0
smt_24520,14.782873116897216,327.6,4.512476531409406,2.6698513343336217,0
smt_19116,14.782564026514233,327.6,4.512382181475651,2.66978226224872,0
rbt_605806,3.9950691089786696,90.3,4.424218282368405,2.0791462723851564,0
rbt_622714,3.9332493826309385,90.3,4.3557578988161,2.048109684865078,0
rbt_1607258,3.290533841333173,76.65,4.292933909110467,2.0188716683049406,0
rbt_627328,3.8407974538589835,90.3,4.253374810475065,2.0018852545868797,0
sbt_5830,6.895822610759578,163.8,4.209903913772636,1.9806662281375207,0
rbt_621168,3.1951914119681972,76.65,4.168547178040701,1.9593387640637154,0
rbt_605815,3.7581400233971287,90.3,4.161838342632479,1.9574551372991875,0
rbt_1107330,3.7539301161215772,90.3,4.157176208329543,1.9568362082044828,0
rbt_3422597,3.739479640617851,90.3,4.14117346690792,1.9478730192450833,0
rbt_621171,2.56508906557492,61.95,4.140579605447813,1.9453264271782078,0
rbt_606127,2.546113091062178,61.95,4.109948492432894,1.9309691589996658,0
rbt_635966,2.5319992681043932,61.95,4.087165888788367,1.9204917696741066,0
rbt_1124041,3.6891733068048875,90.3,4.085463241201426,1.9216707357061182,0
rbt_605921,3.0410945650529704,76.65,3.9675075865009393,1.8651486866148745,0
sbt_14007,6.456476392507462,163.8,3.941682779308585,1.8543840811969334,0
rbt_627336,3.522485845115305,90.3,3.900870260371323,1.8329046400377214,0
rbt_1627321,3.506913055783295,90.3,3.8836246464931286,1.8254192978111112,0
rbt_1607355,3.497222185699727,90.3,3.8728927859354676,1.8204153812927328,0
rbt_605902,2.396979702881863,61.95,3.869216630963459,1.8182271225275413,0
sbt_4118,11.02932645628839,286.65,3.847663162842627,1.3846089916523365,0
sbt_35173,4.874621570980554,128.1,3.80532519202229,1.7891245431712062,0
rbt_1607358,2.912166822642043,76.65,3.7993044000548504,1.786022667978223,0
sbt_21952,8.213350052500434,216.3,3.7972029831254894,1.7871381019539543,0
sbt_20840,6.187467691628459,163.8,3.777452803191977,1.7780778605590795,0
sbt_6273,6.175670467338482,163.8,3.7702505905607335,1.77350356899771,0
rbt_3405838,3.357664931044625,90.3,3.718344331167913,1.7500689923369979,0
rbt_1107341,2.288910060740733,61.95,3.6947700738349196,1.7383805030515926,0
rbt_622273,2.133335032823169,57.75,3.6940866369232364,1.7388403545808584,0
rbt_638617,2.2811141658250924,61.95,3.682185901251158,1.7324274171802074,0
rbt_605828,3.3174181938687664,90.3,3.673774301072831,1.729266841685125,0
rbt_1607292,3.2519477814442515,90.3,3.601271075796513,1.6933478392588253,0
smt_6536,10.321110755041007,286.65,3.600596809712544,2.1451483272027745,0
smt_6703,10.320542617649842,286.65,3.600398610727313,2.1450291535172643,0
smt_6514,10.319985503146913,286.65,3.600204257159224,2.1449124835802613,0
smt_6984,10.319900464176522,286.65,3.6001745906773146,2.144894691536024,0
smt_5854,10.319035255613318,286.65,3.5998727561881454,2.1447139227701895,0
smt_5855,10.318387039289165,286.65,3.599646621067213,2.1445787912992964,0
smt_5657,10.317855758858075,286.65,3.599461279908626,2.1444682296489406,0
smt_21743,10.317295663950055,286.65,3.5992658866038916,2.1443518597862323,0
smt_22741,10.316721779204029,286.65,3.5990656826108594,2.1442328254551715,0
smt_6098,10.316265852690007,286.65,3.598906629230772,2.1441384028527652,0
smt_19120,10.315737145690784,286.65,3.598722185833171,2.1440290813855882,0
smt_22740,10.31521386265897,286.65,3.5985396346272354,2.143921059998573,0
smt_22738,10.302362624904605,286.65,3.594056384058819,2.1388073843939495,0
smt_6754,10.301885235201835,286.65,3.5938898430845403,2.1387073441196645,0
smt_6567,10.301399951829572,286.65,3.593720548344522,2.138605792374688,0
smt_6746,10.300917549250071,286.65,3.593552258590641,2.138504986314647,0
smt_6812,10.300443477130045,286.65,3.593386874979957,2.13840605999239,0
rbt_1635060,2.203801484470841,61.95,3.557387384133722,1.67270737886114,0
rbt_1626490,3.2113005866614706,90.3,3.5562575710536772,2.6933734121923583,0
sbt_37156,5.807835334707599,163.8,3.5456870175260065,1.6659847007406017,0
rbt_605867,3.2016717740998746,90.3,3.545594434219131,1.6674384710088184,0
sbt_4615,5.738294832519266,163.8,3.50323249848551,1.6497436667437855,0
sbt_3373,5.738293569353652,163.8,3.5032317273221314,1.6497428376458456,0
sbt_20793,5.738292411926039,163.8,3.5032310207118673,1.6497420834784837,0
sbt_4010,5.738290621317086,163.8,3.5032299275440084,1.649740926698346,0
sbt_28804,5.738288998927834,163.8,3.503228937074379,1.6497398885622683,0
rbt_605812,3.1210194392949715,90.3,3.456278448831641,1.626650146474706,0
rbt_632613,3.117107374225953,90.3,3.451946150859306,1.623572440864647,0
rbt_622713,3.1014283118285486,90.3,3.4345828480936307,1.613934610547022,0
rbt_606120,2.1176287096498725,61.95,3.418286859806089,1.6056818920265108,0
sbt_26269,7.3359021309435,216.3,3.391540513612344,1.5948084176107857,0
rbt_1132019,3.0245101903573453,90.3,3.3494022041609584,1.574984183131191,0
rbt_605863,3.01146611360286,90.3,3.3349569364372758,1.5687277094246574,0
sbt_37537,7.183957520169594,216.3,3.3212933519045738,1.2724530317300198,0
sbt_37545,7.1839487088556995,216.3,3.321289278250439,1.2724536972824658,0
sbt_37546,7.1839316707347365,216.3,3.3212814011718614,1.2724524799362027,0
sbt_37539,7.176863698688661,216.3,3.3180137303230053,1.737019086511321,0
sbt_37538,7.176858064856761,216.3,3.318011125685049,1.737019650660945,0
rbt_634166,2.525512058122907,76.65,3.294862437211881,1.548321892870957,0
rbt_1138614,2.030722219650692,61.95,3.2780019687662505,1.5414103290612282,0
rbt_605803,2.919352967862295,90.3,3.2329490231033167,1.519768762006242,0
rbt_605834,2.902088981071566,90.3,3.2138305438223327,1.5134685996824702,0
smt_29484,5.2443480049859685,163.8,3.2016776587215925,1.5866409222067241,0
smt_22951,5.244334361104961,163.8,3.201669329123908,1.586632556840833,0
smt_19381,5.242982628640268,163.8,3.200844095628979,1.5858050625420725,0
smt_18804,5.242278977921163,163.8,3.2004145164353863,1.5853753179920023,0
smt_19380,5.2414726727203345,163.8,3.1999222666180307,1.5848837352225316,0
smt_5349,5.240826705005593,163.8,3.1995279029338173,1.5844905687863078,0
rbt_605904,1.9820840252485945,61.95,3.1994899519751328,1.502408293537502,0
smt_18803,5.240170644814292,163.8,3.199127377786503,1.5840918657519714,0
smt_13454,5.239500792685333,163.8,3.1987184326528286,1.5836854137894365,0
smt_19377,5.238704593271689,163.8,3.198232352424718,1.5832031321594133,0
smt_29411,5.237703707962666,163.8,3.1976213113325187,1.5825981596619956,0
smt_8954,5.237088810384829,163.8,3.1972459159858544,1.5822272105244657,0
smt_5584,5.236372073230608,163.8,3.196808347515633,1.581795517588884,0
rbt_605810,2.445840796636862,76.65,3.190920804483838,1.499747167224881,0
rbt_605864,2.879284919269282,90.3,3.188576876267201,1.4998867780418512,0
rbt_609682,2.4275256250132795,76.65,3.1670262557250877,1.4902036374014072,0
smt_7052,5.1492891079685466,163.8,3.1436441440589413,1.7215502091797525,0
rbt_605835,2.836206718868425,90.3,3.140871227982752,1.4790906724839978,0
rbt_622703,1.9442795712189898,61.95,3.138465813105714,2.3774592834732786,0
sbt_14006,5.13260972244776,163.8,3.133461369015726,1.4735427162110168,0
sbt_27416,6.680227358880732,216.3,3.088408395229187,1.45243696406887,0
sbt_15213,6.680227312740375,216.3,3.088408373897538,1.4524369541118516,0
rbt_606128,2.3529329656493654,76.65,3.0697103270050428,1.4426224309012003,0
rbt_1607257,2.7487272621773005,90.3,3.0439947532417504,1.4308995242997253,0
rbt_607385,2.7470879986861823,90.3,3.042179400538408,1.431067297126277,0
rbt_3405845,2.7378558273782123,90.3,3.0319555120467467,1.4275072018653914,0
rbt_633056,2.729168221230404,90.3,3.0223346857479556,1.4209601246996872,0
rbt_606141,2.7260272483219636,90.3,3.018856310434068,1.4210744203314487,0
rbt_623015,2.7195153438780615,90.3,3.0116448990897693,2.2811192370121964,0
sbt_34389,3.840796175776927,128.1,2.998279606383237,2.307165367042534,0
rbt_1606000,2.665147788316644,90.3,2.951437196363947,1.387670360270951,0
rbt_605982,2.664308531430397,90.3,2.950507786744626,1.3881662325932218,0
rbt_1629639,2.6496001775337086,90.3,2.9342194657073186,1.3785815481862869,0
sbt_3952,4.800930592891911,163.8,2.9309710579315693,1.3796306172894275,0
sbt_4120,4.8009291076507035,163.8,2.9309701511909054,1.3796296611240964,0
sbt_20855,4.800927662268104,163.8,2.930969268783946,1.3796287369104288,0
sbt_20854,4.800926291713469,163.8,2.9309684320595046,1.3796278660753811,0
rbt_635963,1.8114730941773476,61.95,2.9240889332967677,1.3735179636171269,0
smt_25186,4.744999604549358,163.8,2.896825155402538,1.59340405517343,0
rbt_626481,2.6109828358829956,90.3,2.8914538603355435,1.359233581500206,0
rbt_1607306,2.1998416547966237,76.65,2.8699825894280804,1.349540525969623,0
rbt_605820,2.191172232518455,76.65,2.85867218854332,1.344745989732557,0
rbt_605901,2.580084693090886,90.3,2.85723664794118,1.3425756346435345,0
rbt_3405847,2.579148953347412,90.3,2.856200391303889,1.344667235958209,0
rbt_1607289,2.1741743085501564,76.65,2.83649616249205,1.332997579969749,0
sbt_34000,6.125031290522159,216.3,2.8317296766168094,1.3309417158125287,0
sbt_20828,4.598967466058102,163.8,2.8076724457009172,1.3196804722467095,0
rbt_1609690,2.496357157412057,90.3,2.764515124487328,1.2989430596764822,0
sbt_34382,3.5171096423320294,128.1,2.745596910485581,1.2902619732447613,0
rbt_1625170,2.4788194810937925,90.3,2.7450935560285634,1.289956481816384,0
rbt_605821,3.5097141784524815,128.1,2.7398237146389395,1.2875004793103682,0
sbt_35105,3.4972218133513198,128.1,2.730071673186042,1.2832433302423714,0
rbt_605988,2.4457103721217273,90.3,2.7084278761037957,1.2746707580098033,0
smt_6512,7.695129185664011,286.65,2.6845034661308254,1.6166373250626123,0
smt_6425,7.694755934671813,286.65,2.6843732547259074,1.6165749423184634,0
smt_6930,7.694184247617631,286.65,2.68417381741414,1.616474548723805,0
rbt_605804,1.6579770495019543,61.95,2.6763148498820892,1.2577625634711702,0
sbt_6048,4.33925239344764,163.8,2.6491162353160194,1.2468772017985563,0
rbt_605829,2.387864381912122,90.3,2.6443680862814194,1.2432802214505727,0
smt_22686,7.555191573109698,286.65,2.6356851816185936,1.657202625964693,0
smt_6239,7.554751092225837,286.65,2.6355315165623017,1.6571237503214242,0
smt_23961,7.5543212069132375,286.65,2.635381547850423,1.6570471723081381,0
smt_29407,7.553883978775768,286.65,2.6352290175390785,1.6569687808495324,0
smt_6278,7.553492437669015,286.65,2.6350924254906736,1.6569001128332983,0
smt_6630,7.5530359962077664,286.65,2.634933192467388,1.6568192946638716,0
sbt_15045,5.6990942110567815,216.3,2.6348100837063253,1.2394049144480195,0
smt_19070,7.552577457946417,286.65,2.6347732279596783,1.6567382746284054,0
smt_6639,7.552119268392712,286.65,2.6346133851012428,1.6566571013418268,0
smt_19117,7.551691643577701,286.65,2.6344642049808833,1.6565815234907557,0
smt_21514,7.534569041464453,286.65,2.6284908569560277,1.651481082301821,0
smt_5615,7.534125253103445,286.65,2.6283360380615544,1.6513985540916847,0
smt_18742,7.533779686224694,286.65,2.6282154844670136,1.6513371936297794,0
smt_6270,7.533237043074388,286.65,2.628026179338702,1.6512366724885272,0
smt_5967,7.532815057527708,286.65,2.627878966519347,1.651160466444127,0
smt_5772,7.532317344725153,286.65,2.6277053356794537,1.6510698009644458,0
smt_6158,7.531825183416432,286.65,2.627533641519774,1.6509796991376045,0
smt_6263,7.5313990214251625,286.65,2.627384971716436,1.650903649769911,0
smt_6384,7.530870602255792,286.65,2.627200628730435,1.6508080431668926,0
smt_22684,7.530353658139137,286.65,2.6270202889025422,1.6507137701940746,0
smt_22685,7.529931943013912,286.65,2.6268731704217383,1.6506381967333859,0
smt_29447,7.529489872795602,286.65,2.626718950914217,1.6505592896860157,0
smt_19065,7.529016366896745,286.65,2.62655376483403,1.6504753395351666,0
smt_24385,7.52848143391214,286.65,2.626367149454785,1.6503797270453022,0
rbt_1107342,1.6192615138978794,61.95,2.6138200385760766,1.2290927094560222,0
rbt_1607316,2.359931666891306,90.3,2.6134348470557103,1.9804844601493248,0
smt_29448,7.485708646007244,286.65,2.611445541952641,1.6388297002081165,0
smt_6824,7.485280061220352,286.65,2.6112960269388985,1.6387476899704818,0
smt_6855,7.484820581886235,286.65,2.6111357341309036,1.638660322629774,0
smt_19062,7.484284096765346,286.65,2.6109485772772882,1.6385569568618152,0
smt_7054,7.483857749801766,286.65,2.6107998429449735,1.638475779291286,0
smt_6446,7.483422208165837,286.65,2.610647900982326,1.63839304126308,0
smt_39006,7.482976043019094,286.65,2.610492252928343,1.6383079867838157,0
smt_39008,7.482572943625787,286.65,2.610351628685082,1.6382282296181965,0
smt_39007,7.482555956944521,286.65,2.610345702754063,1.6382283013963181,0
smt_6122,7.482169171040784,286.65,2.610210769593855,1.6381561298199447,0
smt_18741,7.4816811516034605,286.65,2.610040520357042,1.6380637819146333,0
smt_5938,7.481229094553031,286.65,2.6098828168683172,1.637979420315576,0
smt_5946,7.480707181087014,286.65,2.6097007434456705,1.6378810666813859,0
rbt_3405987,1.5932411611659547,61.95,2.571817854989434,1.211000205372533,0
sbt_22669,5.560001699622257,216.3,2.5705047154980383,1.2085322485031094,0
rbt_1132012,2.3125434942635774,90.3,2.5609562505687458,1.2036913586514009,0
rbt_1607268,1.9569792066601934,76.65,2.5531366036010352,1.1997898495450554,0
rbt_605823,2.3033420627629257,90.3,2.550766403945654,1.1996784988336202,0
sbt_35588,5.514590704286811,216.3,2.5495102655047672,1.1982291429002085,0
sbt_21281,4.125830596429088,163.8,2.518822097942056,1.183484524109714,0
rbt_605989,2.245751733737713,90.3,2.4869897383584862,1.1688488291594408,0
rbt_1121173,2.2450415874927745,90.3,2.486203308408388,1.1695528708435174,0
rbt_605807,2.2365709159683234,90.3,2.4768227197877337,1.1652762819461928,0
rbt_606130,1.883497659699632,76.65,2.457270267057576,1.1546326432840943,0
sbt_3491,4.018709488291168,163.8,2.4534245960263537,1.1532532757020637,0
rbt_637399,1.5112752752461753,61.95,2.439508111777523,1.1463718157502978,0
sbt_21191,3.98522884486601,163.8,2.4329846427753417,1.1438483807586708,0
sbt_26310,3.9332489700558937,163.8,2.4012508974700206,1.1290858509317145,0
rbt_637705,2.1564699297787633,90.3,2.3881173087250978,1.8090137567152318,0
rbt_1105833,2.1531592984149883,90.3,2.3844510502934533,1.120928206794271,0
smt_29426,5.150018939992613,216.3,2.3809611373058774,1.30402551036787,0
rbt_1607276,2.139204096578052,90.3,2.3689967846933024,1.1131199635457623,0
rbt_1607319,2.1100764269614527,90.3,2.3367402291931927,1.6599027431458577,0
rbt_622709,2.109208890109366,90.3,2.3357795017822434,1.0982670065276097,0
rbt_1607328,2.105269601788487,90.3,2.3314170562441716,1.0963681994535601,0
rbt_607366,2.1020152202739744,90.3,2.327813090004401,1.093933552950199,0
sbt_21953,3.75393036485929,163.8,2.291776779523376,1.0787686936628387,0
sbt_21849,3.753930304312786,163.8,2.291776742559698,1.078768676041628,0
sbt_21968,3.7539302309712017,163.8,2.2917766977846163,1.07876865474531,0
sbt_21137,3.689170637866349,163.8,2.2522409266583323,1.0593809164306967,0
rbt_1633892,2.0298032893724094,90.3,2.2478441742773083,1.0564480591312613,0
...